 Abaqus/Standard 3DEXPERIENCE R2019x                  DATE 18-Mar-2020 TIME 10:21:01
 SUMMARY OF JOB INFORMATION:
 STEP  INC ATT SEVERE EQUIL TOTAL  TOTAL      STEP       INC OF       DOF    IF
               DISCON ITERS ITERS  TIME/    TIME/LPF    TIME/LPF    MONITOR RIKS
               ITERS               FREQ
   1     1   1     0     0     0  0.00       1.00e-36   1.000e-36 
   2     1   1     0     0     0  0.00       1.00e-36   1.000e-36 
                          
 THE ANALYSIS HAS COMPLETED SUCCESSFULLY
