1

   Abaqus 3DEXPERIENCE R2019x                                  Date 17-Mar-2020   Time 22:58:27
   For use by WILLIAM MARSH RICE UNIVERSITY INC under license from Dassault Systemes or its subsidiary.

                                                                                 
                                                                                 
 STEP    1     INCREMENT     1     STEP TIME    0.00    
 


                        S T E P       1     M A T R I X   G E N E R A T E
 
  THE FOLLOWING GLOBAL MATRICES WILL BE GENERATED AND WRITTEN TO MATEX_X1.sim

    STIFFNESS
    MASS
 
  THE MASS MATRIX PROPERTIES: CONSISTENT MASS MATRIX
 
  IF MULTY-POINT CONSTRAINTS ARE SPECIFIED IN THE MODEL, THEY WILL BE APPLIED
 
  THE FOLLOWING GLOBAL MATRICES WILL BE WRITTEN TO THE FOLLOWING TEXT FILES

    STIFFNESS          TO MATEX_STIF1.mtx
    MASS               TO MATEX_MASS1.mtx
 
  MATRIX OUTPUT FORMAT - MATRIX INPUT


          THE ANALYSIS HAS BEEN COMPLETED



     ANALYSIS SUMMARY:
     TOTAL OF          1  INCREMENTS
                       0  CUTBACKS IN AUTOMATIC INCREMENTATION
                       0  ITERATIONS INCLUDING CONTACT ITERATIONS IF PRESENT
                       0  PASSES THROUGH THE EQUATION SOLVER OF WHICH 
                       0  INVOLVE MATRIX DECOMPOSITION, INCLUDING
                       0  DECOMPOSITION(S) OF THE MASS MATRIX
                       1  REORDERING OF EQUATIONS TO MINIMIZE WAVEFRONT
                       0  ADDITIONAL RESIDUAL EVALUATIONS FOR LINE SEARCHES
                       0  ADDITIONAL OPERATOR EVALUATIONS FOR LINE SEARCHES
                       5  WARNING MESSAGES DURING USER INPUT PROCESSING
                       0  WARNING MESSAGES DURING ANALYSIS
                       0  ANALYSIS WARNINGS ARE NUMERICAL PROBLEM MESSAGES
                       0  ANALYSIS WARNINGS ARE NEGATIVE EIGENVALUE MESSAGES
                       0  ERROR MESSAGES



     JOB TIME SUMMARY
       USER TIME (SEC)      =  0.66000    
       SYSTEM TIME (SEC)    =  4.00000E-02
       TOTAL CPU TIME (SEC) =  0.70000    
       WALLCLOCK TIME (SEC) =          1
